<?xml version="1.0" encoding="UTF-8"?>

<!-- generated on 2023-10-30 11:17:58 by Eclipse SUMO netedit Version 1.18.0
<configuration xmlns:xsi="http://www.w3.org/2001/XMLSchema-instance" xsi:noNamespaceSchemaLocation="http://sumo.dlr.de/xsd/neteditConfiguration.xsd">

    <input>
        <sumo-net-file value=".\Town10.net.xml"/>
    </input>

    <output>
        <output-file value=".\Town10.net.xml"/>
    </output>

    <processing>
        <geometry.min-radius.fix.railways value="false"/>
        <geometry.max-grade.fix value="false"/>
        <offset.disable-normalization value="true"/>
        <lefthand value="0"/>
    </processing>

    <junctions>
        <no-turnarounds value="true"/>
        <junctions.corner-detail value="5"/>
        <junctions.limit-turn-speed value="5.50"/>
        <rectangular-lane-cut value="1"/>
    </junctions>

    <pedestrian>
        <walkingareas value="0"/>
    </pedestrian>

</configuration>
-->

<net version="1.16" junctionCornerDetail="5" rectangularLaneCut="true" limitTurnSpeed="5.50" xmlns:xsi="http://www.w3.org/2001/XMLSchema-instance" xsi:noNamespaceSchemaLocation="http://sumo.dlr.de/xsd/net_file.xsd">

    <location netOffset="109.34,135.96" convBoundary="0.00,0.00,214.08,199.44" origBoundary="0.000000,0.000000,0.000000,0.000000" projParameter="+proj=tmerc +lat_0=0 +lon_0=0 +k=1 +x_0=0 +y_0=0 +datum=WGS84 +units=m  +vunits=m +no_defs "/>


    <edge id=":134_0" function="internal">
        <lane id=":134_0_0" index="0" disallow="all" speed="1.39" length="30.91" width="2.50" shape="167.40,72.64 136.49,72.68">
            <param key="origId" value="151_-2"/>
        </lane>
    </edge>
    <edge id=":134_1" function="internal">
        <lane id=":134_1_0" index="0" disallow="pedestrian tram rail_urban rail rail_electric rail_fast ship" speed="9.99" length="6.00" width="3.50" shape="167.39,69.64 161.46,70.49">
            <param key="origId" value="160_-1"/>
        </lane>
    </edge>
    <edge id=":134_2" function="internal">
        <lane id=":134_2_0" index="0" disallow="pedestrian tram rail_urban rail rail_electric rail_fast ship" speed="13.89" length="30.91" width="3.50" shape="167.39,69.64 136.48,69.68">
            <param key="origId" value="151_-1"/>
        </lane>
    </edge>
    <edge id=":134_10" function="internal">
        <lane id=":134_10_0" index="0" disallow="pedestrian tram rail_urban rail rail_electric rail_fast ship" speed="9.99" length="16.35" width="3.50" shape="161.46,70.49 161.33,70.51 156.97,73.09 154.31,77.39 153.37,83.41">
            <param key="origId" value="160_-1"/>
        </lane>
    </edge>
    <edge id=":134_3" function="internal">
        <lane id=":134_3_0" index="0" allow="pedestrian" speed="2.78" length="30.91" width="6.00" shape="136.47,58.30 167.38,58.26">
            <param key="origId" value="150_4"/>
        </lane>
        <lane id=":134_3_1" index="1" disallow="all" speed="1.39" length="30.91" width="0.63" shape="136.47,61.62 167.38,61.58">
            <param key="origId" value="150_3"/>
        </lane>
        <lane id=":134_3_2" index="2" disallow="all" speed="1.39" length="30.91" width="2.50" shape="136.47,63.18 167.38,63.14">
            <param key="origId" value="150_2"/>
        </lane>
        <lane id=":134_3_3" index="3" disallow="pedestrian tram rail_urban rail rail_electric rail_fast ship" speed="13.89" length="30.91" width="3.50" shape="136.48,66.18 167.39,66.14">
            <param key="origId" value="150_1"/>
        </lane>
    </edge>
    <edge id=":134_7" function="internal">
        <lane id=":134_7_0" index="0" disallow="pedestrian tram rail_urban rail rail_electric rail_fast ship" speed="10.93" length="6.02" width="3.50" shape="136.48,66.18 142.43,67.03">
            <param key="origId" value="172_1"/>
        </lane>
    </edge>
    <edge id=":134_11" function="internal">
        <lane id=":134_11_0" index="0" disallow="pedestrian tram rail_urban rail rail_electric rail_fast ship" speed="10.93" length="21.59" width="3.50" shape="142.43,67.03 143.95,67.25 149.26,70.48 152.40,75.87 153.37,83.41">
            <param key="origId" value="172_1"/>
        </lane>
    </edge>
    <edge id=":134_8" function="internal">
        <lane id=":134_8_0" index="0" disallow="pedestrian tram rail_urban rail rail_electric rail_fast ship" speed="9.79" length="21.91" width="3.50" shape="149.87,83.37 149.10,77.37 146.61,73.09 142.41,70.53 136.48,69.68">
            <param key="origId" value="179_1"/>
        </lane>
    </edge>
    <edge id=":134_9" function="internal">
        <lane id=":134_9_0" index="0" disallow="pedestrian tram rail_urban rail rail_electric rail_fast ship" speed="11.11" length="27.93" width="3.50" shape="149.87,83.37 151.05,75.84 154.36,70.46 159.81,67.23 167.39,66.14">
            <param key="origId" value="152_1"/>
        </lane>
    </edge>
    <edge id=":189_0" function="internal">
        <lane id=":189_0_0" index="0" disallow="all" speed="1.39" length="38.11" width="2.50" shape="80.66,125.86 42.55,125.97">
            <param key="origId" value="254_6"/>
        </lane>
    </edge>
    <edge id=":189_1" function="internal">
        <lane id=":189_1_0" index="0" disallow="pedestrian tram rail_urban rail rail_electric rail_fast ship" speed="9.99" length="22.51" width="3.50" shape="80.66,122.86 74.93,123.80 70.84,126.58 68.37,131.20 67.53,137.67">
            <param key="origId" value="395_1"/>
        </lane>
    </edge>
    <edge id=":189_2" function="internal">
        <lane id=":189_2_0" index="0" disallow="pedestrian tram rail_urban rail rail_electric rail_fast ship" speed="13.89" length="38.11" width="3.50" shape="80.66,122.86 42.55,122.97">
            <param key="origId" value="254_5"/>
            <param key="signalID" value="952"/>
        </lane>
        <lane id=":189_2_1" index="1" disallow="pedestrian tram rail_urban rail rail_electric rail_fast ship" speed="13.89" length="38.11" width="3.50" shape="80.65,119.36 42.54,119.47">
            <param key="origId" value="254_4"/>
            <param key="signalID" value="952"/>
        </lane>
    </edge>
    <edge id=":189_4" function="internal">
        <lane id=":189_4_0" index="0" disallow="pedestrian tram rail_urban rail rail_electric rail_fast ship" speed="12.67" length="37.21" width="3.50" shape="80.65,119.36 71.88,117.76 65.63,112.90 61.89,104.78 60.66,93.41">
            <param key="origId" value="338_1"/>
            <param key="signalID" value="949"/>
        </lane>
    </edge>
    <edge id=":189_5" function="internal">
        <lane id=":189_5_0" index="0" disallow="all" speed="1.39" length="38.11" width="0.50" shape="80.64,117.36 42.53,117.47">
            <param key="origId" value="254_3"/>
        </lane>
        <lane id=":189_5_1" index="1" disallow="all" speed="1.39" length="38.11" width="0.50" shape="80.63,113.36 42.52,113.47">
            <param key="origId" value="254_1"/>
        </lane>
    </edge>
    <edge id=":189_7" function="internal">
        <lane id=":189_7_0" index="0" disallow="all" speed="1.39" length="44.25" width="2.00" shape="70.41,93.43 70.28,137.68">
            <param key="origId" value="467_-3"/>
        </lane>
    </edge>
    <edge id=":189_8" function="internal">
        <lane id=":189_8_0" index="0" disallow="pedestrian tram rail_urban rail rail_electric rail_fast ship" speed="9.87" length="6.38" width="3.50" shape="67.66,93.42 68.46,99.75">
            <param key="origId" value="344_-1"/>
        </lane>
    </edge>
    <edge id=":189_9" function="internal">
        <lane id=":189_9_0" index="0" disallow="pedestrian tram rail_urban rail rail_electric rail_fast ship" speed="13.89" length="44.25" width="3.50" shape="67.66,93.42 67.53,137.67">
            <param key="origId" value="467_-2"/>
            <param key="signalID" value="950"/>
        </lane>
    </edge>
    <edge id=":189_10" function="internal">
        <lane id=":189_10_0" index="0" disallow="pedestrian tram rail_urban rail rail_electric rail_fast ship" speed="13.81" length="37.70" width="3.50" shape="67.66,93.42 66.07,106.32 61.35,115.55 53.51,121.10 48.85,121.89"/>
    </edge>
    <edge id=":189_11" function="internal">
        <lane id=":189_11_0" index="0" disallow="pedestrian tram rail_urban rail rail_electric rail_fast ship" speed="11.01" length="6.56" width="3.50" shape="64.16,93.41 65.00,99.92"/>
    </edge>
    <edge id=":189_12" function="internal">
        <lane id=":189_12_0" index="0" disallow="pedestrian tram rail_urban rail rail_electric rail_fast ship" speed="13.89" length="44.24" width="3.50" shape="64.16,93.41 64.03,137.66">
            <param key="origId" value="467_-1"/>
            <param key="signalID" value="950"/>
        </lane>
    </edge>
    <edge id=":189_13" function="internal">
        <lane id=":189_13_0" index="0" disallow="pedestrian tram rail_urban rail rail_electric rail_fast ship" speed="12.93" length="38.47" width="3.50" shape="64.16,93.41 62.79,104.79 58.73,112.93 51.98,117.82 42.54,119.47">
            <param key="origId" value="256_-1"/>
            <param key="signalID" value="950"/>
        </lane>
    </edge>
    <edge id=":189_26" function="internal">
        <lane id=":189_26_0" index="0" disallow="pedestrian tram rail_urban rail rail_electric rail_fast ship" speed="9.87" length="15.75" width="3.50" shape="68.46,99.75 70.88,104.27 74.94,106.97 80.62,107.86">
            <param key="origId" value="344_-1"/>
        </lane>
    </edge>
    <edge id=":189_27" function="internal">
        <lane id=":189_27_0" index="0" disallow="pedestrian tram rail_urban rail rail_electric rail_fast ship" speed="13.81" length="6.39" width="3.50" shape="48.85,121.89 42.55,122.97"/>
    </edge>
    <edge id=":189_28" function="internal">
        <lane id=":189_28_0" index="0" disallow="pedestrian tram rail_urban rail rail_electric rail_fast ship" speed="11.01" length="21.23" width="3.50" shape="65.00,99.92 65.17,101.28 68.26,106.90 73.41,110.26 80.63,111.36"/>
    </edge>
    <edge id=":189_14" function="internal">
        <lane id=":189_14_0" index="0" disallow="all" speed="1.39" length="38.11" width="2.50" shape="42.50,104.97 80.61,104.86">
            <param key="origId" value="255_-3"/>
            <param key="signalID" value="951 950"/>
        </lane>
    </edge>
    <edge id=":189_15" function="internal">
        <lane id=":189_15_0" index="0" disallow="pedestrian tram rail_urban rail rail_electric rail_fast ship" speed="10.20" length="23.54" width="3.50" shape="42.51,107.97 48.91,107.04 53.48,104.31 56.23,99.76 57.16,93.40">
            <param key="origId" value="268_-1"/>
        </lane>
    </edge>
    <edge id=":189_16" function="internal">
        <lane id=":189_16_0" index="0" disallow="pedestrian tram rail_urban rail rail_electric rail_fast ship" speed="13.89" length="38.11" width="3.50" shape="42.51,107.97 80.62,107.86">
            <param key="origId" value="255_-2"/>
            <param key="signalID" value="951 950 949"/>
        </lane>
        <lane id=":189_16_1" index="1" disallow="pedestrian tram rail_urban rail rail_electric rail_fast ship" speed="13.89" length="38.11" width="3.50" shape="42.52,111.47 80.63,111.36">
            <param key="origId" value="255_-1"/>
            <param key="signalID" value="951 950 949"/>
        </lane>
    </edge>
    <edge id=":189_18" function="internal">
        <lane id=":189_18_0" index="0" disallow="pedestrian tram rail_urban rail rail_electric rail_fast ship" speed="13.33" length="34.33" width="3.50" shape="42.52,111.47 53.49,113.08 61.32,117.99 66.00,126.18 66.60,130.71">
            <param key="origId" value="315_-1"/>
            <param key="signalID" value="952 949 949"/>
        </lane>
        <lane id=":189_18_1" index="1" disallow="pedestrian tram rail_urban rail rail_electric rail_fast ship" speed="12.89" length="38.59" width="3.50" shape="42.52,111.47 51.96,113.08 58.69,117.99 62.72,126.18 64.03,137.66">
            <param key="origId" value="296_-1"/>
            <param key="signalID" value="952 949 949"/>
        </lane>
    </edge>
    <edge id=":189_29" function="internal">
        <lane id=":189_29_0" index="0" disallow="pedestrian tram rail_urban rail rail_electric rail_fast ship" speed="13.33" length="7.02" width="3.50" shape="66.60,130.71 67.53,137.67">
            <param key="origId" value="315_-1"/>
            <param key="signalID" value="952 949 949"/>
        </lane>
    </edge>
    <edge id=":189_20" function="internal">
        <lane id=":189_20_0" index="0" disallow="all" speed="1.39" length="44.23" width="2.00" shape="54.28,137.62 54.41,93.39">
            <param key="origId" value="466_3"/>
        </lane>
    </edge>
    <edge id=":189_21" function="internal">
        <lane id=":189_21_0" index="0" disallow="pedestrian tram rail_urban rail rail_electric rail_fast ship" speed="10.16" length="23.53" width="3.50" shape="57.03,137.63 56.14,131.20 53.43,126.62 48.90,123.87 42.55,122.97">
            <param key="origId" value="286_1"/>
        </lane>
    </edge>
    <edge id=":189_22" function="internal">
        <lane id=":189_22_0" index="0" disallow="pedestrian tram rail_urban rail rail_electric rail_fast ship" speed="13.89" length="44.24" width="3.50" shape="57.03,137.63 57.16,93.40">
            <param key="origId" value="466_2"/>
            <param key="signalID" value="951"/>
        </lane>
        <lane id=":189_22_1" index="1" disallow="pedestrian tram rail_urban rail rail_electric rail_fast ship" speed="13.89" length="44.24" width="3.50" shape="60.53,137.64 60.66,93.41">
            <param key="origId" value="466_1"/>
            <param key="signalID" value="951"/>
        </lane>
    </edge>
    <edge id=":189_24" function="internal">
        <lane id=":189_24_0" index="0" disallow="pedestrian tram rail_urban rail rail_electric rail_fast ship" speed="13.25" length="8.91" width="3.50" shape="60.53,137.64 61.41,128.78">
            <param key="origId" value="382_1"/>
            <param key="signalID" value="952"/>
        </lane>
        <lane id=":189_24_1" index="1" disallow="pedestrian tram rail_urban rail rail_electric rail_fast ship" speed="12.77" length="7.88" width="3.50" shape="60.53,137.64 61.41,129.81">
            <param key="origId" value="375_1"/>
            <param key="signalID" value="952"/>
        </lane>
    </edge>
    <edge id=":189_30" function="internal">
        <lane id=":189_30_0" index="0" disallow="pedestrian tram rail_urban rail rail_electric rail_fast ship" speed="13.25" length="31.55" width="3.50" shape="61.41,128.78 61.82,124.63 65.60,115.33 71.86,109.74 80.62,107.86">
            <param key="origId" value="382_1"/>
            <param key="signalID" value="952"/>
        </lane>
    </edge>
    <edge id=":189_31" function="internal">
        <lane id=":189_31_0" index="0" disallow="pedestrian tram rail_urban rail rail_electric rail_fast ship" speed="12.77" length="29.60" width="3.50" shape="61.41,129.81 61.82,126.17 65.60,117.96 71.87,113.02 80.63,111.36">
            <param key="origId" value="375_1"/>
            <param key="signalID" value="952"/>
        </lane>
    </edge>
    <edge id=":23_0" function="internal">
        <lane id=":23_0_0" index="0" allow="pedestrian" speed="2.78" length="39.30" width="6.00" shape="81.69,211.63 42.40,212.04">
            <param key="origId" value="90_5"/>
        </lane>
        <lane id=":23_0_1" index="1" disallow="all" speed="1.39" length="39.30" width="0.63" shape="81.66,208.31 42.36,208.72">
            <param key="origId" value="90_4"/>
        </lane>
        <lane id=":23_0_2" index="2" disallow="all" speed="1.39" length="39.30" width="2.00" shape="81.65,207.00 42.34,207.41">
            <param key="origId" value="90_3"/>
        </lane>
        <lane id=":23_0_3" index="3" disallow="pedestrian tram rail_urban rail rail_electric rail_fast ship" speed="13.89" length="39.30" width="3.50" shape="81.62,204.25 42.31,204.66">
            <param key="origId" value="90_2"/>
            <param key="signalID" value="943"/>
        </lane>
        <lane id=":23_0_4" index="4" disallow="pedestrian tram rail_urban rail rail_electric rail_fast ship" speed="13.89" length="39.30" width="3.50" shape="81.58,200.75 42.27,201.16">
            <param key="origId" value="90_1"/>
            <param key="signalID" value="943"/>
        </lane>
    </edge>
    <edge id=":23_5" function="internal">
        <lane id=":23_5_0" index="0" disallow="pedestrian tram rail_urban rail rail_electric rail_fast ship" speed="12.17" length="34.11" width="3.50" shape="81.58,200.75 72.53,199.49 66.03,195.50 62.09,188.78 60.70,179.32">
            <param key="origId" value="24_1"/>
            <param key="signalID" value="944 944 944"/>
        </lane>
    </edge>
    <edge id=":23_6" function="internal">
        <lane id=":23_6_0" index="0" disallow="pedestrian tram rail_urban rail rail_electric rail_fast ship" speed="10.03" length="22.82" width="3.50" shape="67.70,179.25 68.62,185.65 71.23,190.20 75.52,192.90 81.50,193.75">
            <param key="origId" value="41_1"/>
        </lane>
        <lane id=":23_6_1" index="1" disallow="pedestrian tram rail_urban rail rail_electric rail_fast ship" speed="10.63" length="25.74" width="3.50" shape="67.70,179.25 68.64,187.18 71.26,192.82 75.56,196.18 81.54,197.25">
            <param key="origId" value="33_1"/>
        </lane>
    </edge>
    <edge id=":23_8" function="internal">
        <lane id=":23_8_0" index="0" disallow="pedestrian tram rail_urban rail rail_electric rail_fast ship" speed="12.86" length="38.16" width="3.50" shape="64.20,179.29 62.93,190.29 58.86,198.19 51.99,202.98 42.31,204.66">
            <param key="origId" value="100_1"/>
            <param key="signalID" value="944 944 945"/>
        </lane>
        <lane id=":23_8_1" index="1" disallow="pedestrian tram rail_urban rail rail_electric rail_fast ship" speed="12.38" length="35.31" width="3.50" shape="64.20,179.29 62.91,188.76 58.83,195.56 51.95,199.69 42.27,201.16">
            <param key="origId" value="105_1"/>
            <param key="signalID" value="944 944 945"/>
        </lane>
    </edge>
    <edge id=":23_10" function="internal">
        <lane id=":23_10_0" index="0" disallow="all" speed="1.39" length="39.32" width="2.00" shape="42.15,191.41 81.47,191.00">
            <param key="origId" value="89_-3"/>
            <param key="signalID" value="943"/>
        </lane>
    </edge>
    <edge id=":23_11" function="internal">
        <lane id=":23_11_0" index="0" disallow="pedestrian tram rail_urban rail rail_electric rail_fast ship" speed="10.29" length="24.03" width="3.50" shape="42.19,194.16 48.81,193.17 53.52,190.37 56.32,185.77 57.20,179.36">
            <param key="origId" value="125_-1"/>
        </lane>
    </edge>
    <edge id=":23_12" function="internal">
        <lane id=":23_12_0" index="0" disallow="pedestrian tram rail_urban rail rail_electric rail_fast ship" speed="13.89" length="39.32" width="3.50" shape="42.19,194.16 81.50,193.75">
            <param key="origId" value="89_-2"/>
            <param key="signalID" value="943 945"/>
        </lane>
        <lane id=":23_12_1" index="1" disallow="pedestrian tram rail_urban rail rail_electric rail_fast ship" speed="13.89" length="39.32" width="3.50" shape="42.23,197.66 81.54,197.25">
            <param key="origId" value="89_-1"/>
            <param key="signalID" value="943 945"/>
        </lane>
    </edge>
    <edge id=":468_0" function="internal">
        <lane id=":468_0_0" index="0" disallow="all" speed="1.39" length="41.50" width="2.00" shape="80.85,8.68 68.52,8.20 60.00,7.38 51.60,7.47 39.61,9.70">
            <param key="origId" value="515_-3"/>
            <param key="signalID" value="953"/>
        </lane>
    </edge>
    <edge id=":468_1" function="internal">
        <lane id=":468_1_0" index="0" disallow="pedestrian tram rail_urban rail rail_electric rail_fast ship" speed="10.02" length="22.61" width="3.50" shape="80.83,5.93 75.17,6.90 71.12,9.74 68.69,14.45 67.86,21.01">
            <param key="origId" value="476_-1"/>
        </lane>
        <lane id=":468_1_1" index="1" disallow="pedestrian tram rail_urban rail rail_electric rail_fast ship" speed="10.60" length="25.40" width="3.50" shape="80.83,5.93 73.64,6.91 68.50,9.75 65.41,14.45 64.36,21.00">
            <param key="origId" value="486_-1"/>
        </lane>
    </edge>
    <edge id=":468_3" function="internal">
        <lane id=":468_3_0" index="0" disallow="pedestrian tram rail_urban rail rail_electric rail_fast ship" speed="13.89" length="42.55" width="3.50" shape="80.83,5.93 68.31,5.45 59.66,4.65 51.13,4.76 38.95,7.03">
            <param key="origId" value="515_-2"/>
            <param key="signalID" value="953 954"/>
        </lane>
        <lane id=":468_3_1" index="1" disallow="pedestrian tram rail_urban rail rail_electric rail_fast ship" speed="13.89" length="42.55" width="3.50" shape="80.81,2.43 68.04,1.95 59.23,1.16 50.52,1.30 38.11,3.64">
            <param key="origId" value="515_-1"/>
            <param key="signalID" value="953 954"/>
        </lane>
    </edge>
    <edge id=":468_5" function="internal">
        <lane id=":468_5_0" index="0" allow="pedestrian" speed="2.78" length="45.12" width="6.00" shape="34.65,-10.32 48.05,-12.89 57.43,-13.16 66.95,-12.41 80.72,-11.95">
            <param key="origId" value="516_5"/>
        </lane>
        <lane id=":468_5_1" index="1" disallow="all" speed="1.39" length="45.12" width="0.63" shape="35.45,-7.10 48.62,-9.62 57.85,-9.86 67.20,-9.10 80.74,-8.63">
            <param key="origId" value="516_4"/>
        </lane>
        <lane id=":468_5_2" index="2" disallow="all" speed="1.39" length="45.12" width="2.00" shape="35.77,-5.83 48.85,-8.32 58.01,-8.55 67.30,-7.79 80.75,-7.32">
            <param key="origId" value="516_3"/>
        </lane>
        <lane id=":468_5_3" index="3" disallow="pedestrian tram rail_urban rail rail_electric rail_fast ship" speed="13.89" length="45.12" width="3.50" shape="36.43,-3.16 49.32,-5.61 58.35,-5.81 67.51,-5.04 80.77,-4.57">
            <param key="origId" value="516_2"/>
            <param key="signalID" value="955"/>
        </lane>
        <lane id=":468_5_4" index="4" disallow="pedestrian tram rail_urban rail rail_electric rail_fast ship" speed="13.89" length="45.12" width="3.50" shape="37.27,0.24 49.92,-2.15 58.79,-2.32 67.78,-1.54 80.79,-1.07">
            <param key="origId" value="516_1"/>
            <param key="signalID" value="956"/>
        </lane>
    </edge>
    <edge id=":468_10" function="internal">
        <lane id=":468_10_0" index="0" disallow="pedestrian tram rail_urban rail rail_electric rail_fast ship" speed="10.22" length="28.14" width="3.50" shape="57.36,20.99 56.23,13.17 52.78,8.24 47.02,6.19 38.95,7.03">
            <param key="origId" value="472_1"/>
            <param key="signalID" value="954"/>
        </lane>
        <lane id=":468_10_1" index="1" disallow="pedestrian tram rail_urban rail rail_electric rail_fast ship" speed="11.32" length="34.87" width="3.50" shape="60.86,21.00 59.46,11.28 55.20,5.15 48.09,2.61 38.11,3.64">
            <param key="origId" value="469_1"/>
            <param key="signalID" value="954"/>
        </lane>
    </edge>
    <edge id=":532_0" function="internal">
        <lane id=":532_0_0" index="0" disallow="all" speed="1.39" length="46.63" width="2.00" shape="205.99,140.47 205.67,93.84">
            <param key="origId" value="565_3"/>
        </lane>
    </edge>
    <edge id=":532_1" function="internal">
        <lane id=":532_1_0" index="0" disallow="pedestrian tram rail_urban rail rail_electric rail_fast ship" speed="11.00" length="27.59" width="3.50" shape="208.74,140.45 207.68,132.60 204.60,127.00 199.52,123.65 192.42,122.55">
            <param key="origId" value="655_1"/>
        </lane>
    </edge>
    <edge id=":532_2" function="internal">
        <lane id=":532_2_0" index="0" disallow="pedestrian tram rail_urban rail rail_electric rail_fast ship" speed="13.89" length="46.63" width="3.50" shape="208.74,140.45 208.42,93.82">
            <param key="origId" value="565_2"/>
            <param key="signalID" value="957"/>
        </lane>
        <lane id=":532_2_1" index="1" disallow="pedestrian tram rail_urban rail rail_electric rail_fast ship" speed="13.89" length="46.63" width="3.50" shape="212.24,140.43 211.92,93.80">
            <param key="origId" value="565_1"/>
            <param key="signalID" value="957"/>
        </lane>
    </edge>
    <edge id=":532_4" function="internal">
        <lane id=":532_4_0" index="0" allow="pedestrian" speed="2.78" length="46.63" width="6.00" shape="226.30,93.71 226.62,140.34">
            <param key="origId" value="566_-5"/>
            <param key="signalID" value="959 958"/>
        </lane>
        <lane id=":532_4_1" index="1" disallow="all" speed="1.39" length="46.63" width="0.63" shape="222.98,93.73 223.30,140.36">
            <param key="origId" value="566_-4"/>
            <param key="signalID" value="959 958"/>
        </lane>
        <lane id=":532_4_2" index="2" disallow="all" speed="1.39" length="46.63" width="2.00" shape="221.67,93.74 221.99,140.37">
            <param key="origId" value="566_-3"/>
            <param key="signalID" value="959 958"/>
        </lane>
        <lane id=":532_4_3" index="3" disallow="pedestrian tram rail_urban rail rail_electric rail_fast ship" speed="13.89" length="46.63" width="3.50" shape="218.92,93.76 219.24,140.39">
            <param key="origId" value="566_-2"/>
            <param key="signalID" value="959 958 958"/>
        </lane>
    </edge>
    <edge id=":532_8" function="internal">
        <lane id=":532_8_0" index="0" disallow="pedestrian tram rail_urban rail rail_electric rail_fast ship" speed="13.85" length="37.80" width="3.50" shape="218.92,93.76 217.33,106.33 212.38,115.32 204.08,120.72 199.18,121.49"/>
    </edge>
    <edge id=":532_9" function="internal">
        <lane id=":532_9_0" index="0" disallow="pedestrian tram rail_urban rail rail_electric rail_fast ship" speed="13.89" length="46.63" width="3.50" shape="215.42,93.78 215.74,140.41">
            <param key="origId" value="566_-1"/>
            <param key="signalID" value="959 958 958"/>
        </lane>
    </edge>
    <edge id=":532_10" function="internal">
        <lane id=":532_10_0" index="0" disallow="pedestrian tram rail_urban rail rail_electric rail_fast ship" speed="12.97" length="38.99" width="3.50" shape="215.42,93.78 214.04,104.81 209.75,112.70 202.53,117.45 192.41,119.05"/>
    </edge>
    <edge id=":532_15" function="internal">
        <lane id=":532_15_0" index="0" disallow="pedestrian tram rail_urban rail rail_electric rail_fast ship" speed="13.85" length="6.85" width="3.50" shape="199.18,121.49 192.42,122.55"/>
    </edge>
    <edge id=":532_11" function="internal">
        <lane id=":532_11_0" index="0" disallow="pedestrian tram rail_urban rail rail_electric rail_fast ship" speed="10.28" length="24.05" width="3.50" shape="192.38,107.55 199.43,106.68 204.45,104.10 207.45,99.81 208.42,93.82">
            <param key="origId" value="579_-1"/>
        </lane>
        <lane id=":532_11_1" index="1" disallow="pedestrian tram rail_urban rail rail_electric rail_fast ship" speed="10.86" length="27.02" width="3.50" shape="192.38,107.55 200.96,106.67 207.08,104.09 210.73,99.80 211.92,93.80">
            <param key="origId" value="608_-1"/>
        </lane>
    </edge>
    <edge id=":532_13" function="internal">
        <lane id=":532_13_0" index="0" disallow="pedestrian tram rail_urban rail rail_electric rail_fast ship" speed="13.89" length="45.29" width="3.50" shape="192.39,111.05 204.07,112.86 212.44,118.35 217.49,127.53 219.24,140.39">
            <param key="origId" value="630_-1"/>
            <param key="signalID" value="959 959"/>
        </lane>
        <lane id=":532_13_1" index="1" disallow="pedestrian tram rail_urban rail rail_electric rail_fast ship" speed="13.57" length="42.57" width="3.50" shape="192.39,111.05 202.54,112.86 209.81,118.36 214.21,127.54 215.74,140.41">
            <param key="origId" value="637_-1"/>
            <param key="signalID" value="959 959"/>
        </lane>
    </edge>
    <edge id=":664_0" function="internal">
        <lane id=":664_0_0" index="0" disallow="all" speed="1.39" length="29.63" width="2.00" shape="205.60,82.76 205.40,53.13">
            <param key="origId" value="676_3"/>
        </lane>
    </edge>
    <edge id=":664_1" function="internal">
        <lane id=":664_1_0" index="0" disallow="pedestrian tram rail_urban rail rail_electric rail_fast ship" speed="9.68" length="5.82" width="3.50" shape="208.35,82.74 207.50,76.99">
            <param key="origId" value="703_1"/>
        </lane>
    </edge>
    <edge id=":664_2" function="internal">
        <lane id=":664_2_0" index="0" disallow="pedestrian tram rail_urban rail rail_electric rail_fast ship" speed="13.89" length="29.65" width="3.50" shape="208.35,82.74 208.15,53.10">
            <param key="origId" value="676_2"/>
        </lane>
        <lane id=":664_2_1" index="1" disallow="pedestrian tram rail_urban rail rail_electric rail_fast ship" speed="13.89" length="29.65" width="3.50" shape="211.85,82.72 211.65,53.06">
            <param key="origId" value="676_1"/>
        </lane>
    </edge>
    <edge id=":664_10" function="internal">
        <lane id=":664_10_0" index="0" disallow="pedestrian tram rail_urban rail rail_electric rail_fast ship" speed="9.68" length="15.26" width="3.50" shape="207.50,76.99 205.05,72.88 200.99,70.41 195.32,69.60">
            <param key="origId" value="703_1"/>
        </lane>
    </edge>
    <edge id=":664_4" function="internal">
        <lane id=":664_4_0" index="0" allow="pedestrian" speed="2.78" length="29.70" width="6.00" shape="226.03,52.90 226.23,82.63">
            <param key="origId" value="675_-5"/>
        </lane>
        <lane id=":664_4_1" index="1" disallow="all" speed="1.39" length="29.70" width="0.63" shape="222.71,52.94 222.91,82.65">